Resultados_Ferramenta_Computacional_ds_ons_122023_rv0d29/ds_ons_122023_rv0d29_Estagio23.m
function mpc = ds_ons_122023_rv0d29_Estagio23
% CASO SIN: extraido dos arquivos de dados do DESSEM
%
% CASO SIN: Fluxo de Potencia do SIN extraido de arquivo de dados do DESSEM
% Autores Francisco Povoas e Murilo Reolon
%
%   MATPOWER
%
%% MATPOWER Case Format : Version 2
mpc.version = '2';
%
%%-----  Power Flow Data  -----%%

%% system MVA base
mpc.baseMVA = 100;

%% bus data
%	bus_i   type    Pd      Qd      Gs      Bs      area    Vm      Va      baseKV  zone    Vmax    Vmin
mpc.bus = [
   10      1       32.0    -676.9  0       0       221     0.971   44.3    992     0       1.05    0.95;
   11      2       0       0       0       0       221     0.978   51.6    992     0       1.05    0.95;
   12      2       0       0       0       0       204     0.964   57.1    992     0       1.05    0.95;
   13      1       0       17.2    0       0       204     1.01    52.3    990     0       1.05    0.95;
   14      2       0       0       0       0       225     0.974   44.6    992     0       1.05    0.95;
   16      2       0       0       0       0       189     0.973   52.8    992     0       1.05    0.95;
   17      1       0       -503.2  0       0       189     1.012   46.5    990     0       1.05    0.95;
   18      2       0       0       0       0       188     0.963   59.7    992     0       1.05    0.95;
   19      1       0       -107.1  0       0       188     1.005   53      990     0       1.05    0.95;
   20      2       0       0       0       0       188     1.013   58      992     0       1.05    0.95;
   21      2       0       0       0       0       137     0.982   52.4    992     0       1.05    0.95;
   22      2       0       0       0       0       189     0.985   58.1    992     0       1.05    0.95;
   23      1       0       -88.93  0       0       149     0.999   51.9    990     0       1.05    0.95;
   24      2       0       0       0       0       208     0.971   56.8    992     0       1.05    0.95;
   27      1       0       0       0       0       202     0.844   44.6    500     0       1.1     1;
   28      2       0       0       0       0       208     1.007   67.4    992     0       1.05    0.95;
   30      1       0       -722.1  0       0       224     1.002   34.6    992     0       1.05    0.95;
   31      1       0       -226.8  0       0       224     1.002   34.6    992     0       1.05    0.95;
   32      1       0       -314.3  0       0       224     1.002   34.6    992     0       1.05    0.95;
   35      2       0       0       0       0       148     0.964   57.5    992     0       1.05    0.95;
   36      2       0       0       0       0       147     0.975   47      992     0       1.05    0.95;
   37      1       0       -1989.0 0       0       147     1.003   42.9    990     0       1.05    0.95;
   38      1       0       -245.3  0       0       221     1.006   34.5    13.8    0       1.05    0.95;
   41      1       0       -72.21  0       0       234     1.01    27.4    990     0       1.05    0.95;
   44      1       0       -247.5  0       0       221     1.006   34.4    13.8    0       1.05    0.95;
   46      1       0       0       0       0       222     1.045   30.4    15      0       1.9     0.4;
   47      1       0       -77.38  0       0       234     1.011   27.4    990     0       1.05    0.95;
   48      1       0       339.0   0       0       204     0.992   38.5    20      0       1.05    0.95;
   50      1       0       -1907.0 0       0       201     0.965   35.6    20      0       1.05    0.95;
   52      1       0       0       0       0       222     0.865   30.4    345     0       1.05    0.95;
   53      1       0       -335.8  0       0       222     0.972   30.4    20      0       1.05    0.95;
   54      2       0       0       0       0       222     0.972   30.4    20      0       1.05    0.95;
   56      1       0       0       0       0       201     0.729   59.3    69      0       1.9     0.4;
   57      1       0       0       0       0       201     0.676   59.4    69      0       1.9     0.4;
   58      1       0       0       0       0       201     0.789   59.4    991     0       1.9     0.4;
   59      1       0       0       0       0       201     0.786   59.3    991     0       1.9     0.4;
   60      1       0       0       0       0       201     0.766   66.2    765     0       1.046   0.9;
   61      1       0       0       0       0       240     0.735   68.9    500     0       1.1     1;
   62      1       0       0       0       0       201     0.782   52.3    765     0       1.046   0.9;
   63      1       0       0       0       0       201     0.782   52.3    765     0       1.046   0.9;
   64      1       0       0       0       0       201     0.78    52.5    765     0       1.046   0.9;
   65      1       0       0       0       0       201     0.798   57.7    765     0       1.046   0.9;
   66      1       0       0       0       0       101     0.825   59.1    525     0       1.048   0.95;
   67      1       0.24    0.0     0       0       201     0.675   59.4    69      0       1.9     0.4;
   68      1       0       0       0       0       201     0.79    59.4    991     0       1.9     0.4;
   69      1       0       0       0       0       201     0.817   65.1    765     0       1.046   0.9;
   70      1       0       0       0       0       201     0.818   65.1    765     0       1.046   0.9;
   71      1       0       0       0       0       201     0.816   65      765     0       1.046   0.9;
   72      1       0       0       0       0       201     0.684   50.6    765     0       1.046   0.9;
   73      1       0       0       0       0       201     0.772   59.4    765     0       1.046   0.9;
   74      1       0       0       0       0       201     0.773   59.4    765     0       1.046   0.9;
   75      1       0       0       0       0       201     0.769   59      765     0       1.046   0.9;
   76      1       0       0       0       0       201     0.576   42.7    765     0       1.046   0.9;
   77      1       0       0       0       0       202     1.044   42.6    500     0       1.1     1;
   78      1       0       0       0       0       204     1.001   36.4    345     0       1.05    0.95;
   79      1       0       0       0       0       201     0.495   42.6    69      0       1.9     0.4;
   80      1       0       0       0       0       201     0.584   42.6    991     0       1.9     0.4;
   81      1       0       0       0       0       201     0.421   35.6    991     0       1.9     0.4;
   82      1       0       0       0       0       204     0.998   36.5    345     0       1.05    0.95;
   84      1       0       0       0       0       225     1.02    40.3    138     0       1.05    0.95;
   85      1       60.0    0.0     0       0       241     1.099   -0.1    500     0       1.1     1;
   86      1       0       -12020.00       0       204     1.03    38.5    345     0       1.05    0.95;
   87      1       0       0       0       0       221     0.783   43.2    500     0       1.1     1;
   90      1       0       0       0       0       234     0.825   28.5    345     0       1.05    0.95;
   91      1       0       0       0       0       234     0.826   26.4    13.8    0       1.9     0.4;
   92      1       0       0       0       0       147     0.546   46      500     0       1.1     1;
   93      1       0       0       0       0       147     0.545   45.7    500     0       1.1     1;
   94      1       0       0       0       0       147     0.549   45.8    500     0       1.1     1;
   95      1       0       0       0       0       234     0.826   26.3    13.8    0       1.9     0.4;
   96      1       0       0       0       0       234     0.826   26.3    13.8    0       1.9     0.4;
   99      1       0       0       0       0       202     0.887   51.8    500     0       1.1     1;
   100     1       0       0       0       0       188     1.141   52.2    500     0       1.1     1;
   101     1       0       0       0       0       202     0.983   50.6    500     0       1.1     1;
   102     1       0       0       0       0       188     0.828   46      500     0       1.1     1;
   103     1       0       0       0       0       202     0.831   44.1    500     0       1.1     1;
   104     1       0       0       0       0       202     0.818   41.6    500     0       1.1     1;
   105     1       0       0       0       0       221     0.846   44.7    500     0       1.1     1;
   106     1       0       0       0       0       221     0.937   40.6    500     0       1.1     1;
   107     1       0       0       0       0       221     0.942   38.4    500     0       1.1     1;
   108     1       0       0       0       0       221     0.804   39.5    500     0       1.1     1;
   109     1       0       0       0       0       221     0.937   40.6    500     0       1.1     1;
   110     1       0       0       0       0       221     0.983   34.4    991     0       1.9     0.4;
   112     1       0       0       0       0       101     0.805   51.9    500     0       1.1     1;
   113     1       0       0       0       0       101     0.805   51.9    500     0       1.1     1;
   114     1       0       0       0       0       101     0.805   51.9    500     0       1.1     1;
   115     1       0       0       0       0       101     0.757   59.4    500     0       1.1     1;
   116     1       0       0       0       0       226     0.736   31.6    138     0       1.05    0.95;
   118     1       0       0       0       0       148     0.953   41.9    991     0       1.9     0.4;
   119     1       0       0       0       0       148     0.953   41.9    13.8    0       1.9     0.4;
   120     1       0       0       0       0       189     1.006   41.6    345     0       1.05    0.95;
   121     1       0       0       0       0       188     0.495   40.6    991     0       1.9     0.4;
   122     1       0       0       0       0       202     1.068   43.5    500     0       1.1     1;
   123     1       0       0       0       0       204     1.004   39.7    345     0       1.05    0.95;
   124     1       0       0       0       0       202     0.679   38.8    991     0       1.9     0.4;
   125     1       0       0       0       0       202     1.321   34.4    500     0       1.1     1;
   126     1       0       0       0       0       204     0.512   32      345     0       1.05    0.95;
   127     1       0       0       0       0       204     0.461   34.6    345     0       1.05    0.95;
   128     1       0       0       0       0       204     0.461   34.6    345     0       1.05    0.95;
   129     1       0       0       0       0       204     0.443   33.8    345     0       1.05    0.95;
   130     1       0       0       0       0       202     1.321   34.4    500     0       1.1     1;
   131     1       0       0       0       0       189     0.941   51.9    345     0       1.05    0.95;
   133     1       0       0       0       0       222     0.664   33.5    991     0       1.9     0.4;
   134     1       0       0       0       0       204     0.968   52.3    345     0       1.05    0.95;
   135     1       0       0       0       0       222     0.587   33      991     0       1.9     0.4;
   136     1       0       0       0       0       189     0.581   46.5    345     0       1.05    0.95;
   137     1       0       0       0       0       222     0.587   33      991     0       1.9     0.4;
   138     1       0       0       0       0       189     0.606   37      345     0       1.05    0.95;
   139     1       0       0       0       0       221     0.823   37      991     0       1.9     0.4;
   140     1       0       0       0       0       222     1.006   36.5    345     0       1.05    0.95;
   141     1       0       0       0       0       221     0.686   35.4    991     0       1.9     0.4;
   142     1       0       0       0       0       221     0.692   35.6    991     0       1.9     0.4;
   143     1       0       0       0       0       222     0.661   33.5    991     0       1.9     0.4;
   144     1       0       0       0       0       222     0.681   35.3    345     0       1.05    0.95;
   145     1       0       0       0       0       222     0.666   33.4    991     0       1.9     0.4;
   146     1       0       0       0       0       222     0.665   33.5    991     0       1.9     0.4;
   147     1       0       0       0       0       222     1.015   30.4    345     0       1.05    0.95;
   148     1       0       0       0       0       222     0.851   28.9    991     0       1.9     0.4;
   149     1       0       0       0       0       234     0.827   27.4    345     0       1.05    0.95;
   150     1       0       0       0       0       234     0.877   25      991     0       1.9     0.4;
   152     1       0       0       0       0       234     0.875   25      991     0       1.9     0.4;
   153     1       0       0       0       0       234     0.884   24.9    991     0       1.9     0.4;
   154     1       0       0       0       0       234     0.906   25      13.8    0       1.9     0.4;
   155     1       0       0       0       0       234     0.915   24.9    13.8    0       1.9     0.4;
   156     1       0       0       0       0       234     0.895   25.1    13.8    0       1.9     0.4;
   158     1       0       0       0       0       234     0.868   25.1    991     0       1.9     0.4;
   159     1       0       0       0       0       222     0.557   33      13.8    0       1.9     0.4;
   160     1       0       0       0       0       222     0.563   32.9    13.8    0       1.9     0.4;
   161     1       0       0       0       0       205     0.994   33.5    230     0       1.05    0.95;
   162     1       0       0       0       0       204     0.694   38.3    991     0       1.9     0.4;
   163     1       0       0       0       0       204     0.663   38.3    13.8    0       1.9     0.4;
   164     1       0       0       0       0       189     0.565   39      991     0       1.9     0.4;
   165     1       0       0       0       0       189     0.499   39      13.8    0       1.9     0.4;
   166     1       0       0       0       0       222     0.588   32.9    991     0       1.9     0.4;
   167     1       0       0       0       0       222     0.557   33      13.8    0       1.9     0.4;
   169     1       0       0       0       0       224     1.015   35.6    138     0       1.05    0.95;
   170     1       0       0       0       0       196     1.04    39.3    138     0       1.05    0.95;
   171     1       0       0       0       0       207     0.666   38.2    138     0       1.05    0.95;
   172     1       0       0       0       0       226     0.566   33.9    138     0       1.05    0.95;
   173     1       0       0       0       0       226     1.04    33.6    138     0       1.05    0.95;
   174     1       0       0       0       0       228     0.894   29.1    138     0       1.05    0.95;
   175     1       0       0       0       0       229     1.035   29      138     0       1.05    0.95;
   176     1       0       0       0       0       202     0.679   39      991     0       1.9     0.4;
   177     1       0       0       0       0       236     1.03    25.2    138     0       1.05    0.95;
   178     1       0       0       0       0       224     1.0     34.7    138     0       1.05    0.95;
   179     1       0       0       0       0       221     0.983   34.5    991     0       1.9     0.4;
   180     1       0       0       0       0       224     1.0     33.1    138     0       1.05    0.95;
   181     1       0       0       0       0       221     1.02    38.3    138     0       1.05    0.95;
   182     1       0       0       0       0       225     0.632   39.8    138     0       1.05    0.95;
   183     1       0       0       0       0       214     1.035   40.6    138     0       1.05    0.95;
   184     1       0       0       0       0       224     0.742   34.6    138     0       1.05    0.95;
   185     1       0       0       0       0       225     0.636   46.2    138     0       1.05    0.95;
   186     1       0       0       0       0       202     0.679   39      13.8    0       1.9     0.4;
   187     1       0       0       0       0       195     1.04    51.4    138     0       1.05    0.95;
   189     1       0       0       0       0       159     0.358   36.2    991     0       1.9     0.4;
   190     1       0       0       0       0       208     1.117   62.6    138     0       1.05    0.95;
   192     1       0       0       0       0       222     0.901   28.9    13.8    0       1.9     0.4;
   194     1       0       0       0       0       221     0.657   35.6    13.8    0       1.9     0.4;
   195     1       0       0       0       0       221     0.652   35.4    13.8    0       1.9     0.4;
   196     1       0       0       0       0       202     0.594   38.8    13.8    0       1.9     0.4;
   197     1       0       0       0       0       221     0.775   37      13.8    0       1.9     0.4;
   198     1       0       0       0       0       188     0.387   40.6    13.8    0       1.9     0.4;
   199     1       0       0       0       0       234     1.008   25      13.8    0       1.9     0.4;
   200     1       0       0       0       0       229     0.925   27.2    991     0       1.9     0.4;
   201     1       0       0       0       0       229     0.925   27.2    992     0       1.05    0.95;
   202     1       0       0       0       0       229     0.925   27.2    991     0       1.9     0.4;
   203     1       0       0       0       0       229     0.925   27.2    992     0       1.05    0.95;
   204     1       0       0       0       0       222     0.666   33.4    13.8    0       1.9     0.4;
   205     1       0       0       0       0       222     0.665   33.5    13.8    0       1.9     0.4;
   206     1       0       0       0       0       222     0.661   33.5    13.8    0       1.9     0.4;
   208     1       0       0       0       0       159     0.458   36.2    13.8    0       1.9     0.4;
   209     1       0       0       0       0       222     0.664   33.5    13.8    0       1.9     0.4;
   210     1       0       0       0       0       188     1.011   53      500     0       1.1     1;
   211     1       0       0       0       0       222     0.952   28.9    991     0       1.9     0.4;
   212     1       0       0       0       0       222     0.952   28.9    13.8    0       1.9     0.4;
   213     1       0       0       0       0       189     1.017   52.5    345     0       1.05    0.95;
   214     1       0       0       0       0       188     1.114   52.6    991     0       1.9     0.4;
   216     1       0       0       0       0       189     1.108   52.8    345     0       1.05    0.95;
   217     1       0       0       0       0       189     0.96    51.2    345     0       1.05    0.95;
   218     1       0       0       0       0       148     0.945   43.6    345     0       1.05    0.95;
   219     1       0       0       0       0       158     0.504   42.7    345     0       1.05    0.95;
   220     1       0       0       0       0       148     0.928   51.2    345     0       1.05    0.95;
   221     1       0       0       0       0       160     1.012   36.5    34.5    0       1.05    0.95;
   222     1       0       0       0       0       158     0.479   40.8    991     0       1.9     0.4;
   223     1       0       0       0       0       148     1.057   41.8    991     0       1.9     0.4;
   224     1       0       0       0       0       148     1.065   41.7    991     0       1.9     0.4;
   225     1       0       0       0       0       190     1.042   50.9    230     0       1.05    0.95;
   226     1       0       0       0       0       149     1.071   42.1    230     0       1.05    0.95;
   227     1       0       0       0       0       159     0.476   40.9    230     0       1.05    0.95;
   228     1       0       0       0       0       159     0.477   41.2    230     0       1.05    0.95;
   229     1       0       0       0       0       149     0.994   32.8    230     0       1.05    0.95;
   230     1       0       0       0       0       149     1.008   44      230     0       1.05    0.95;
   231     1       0       0       0       0       149     0.706   48.7    230     0       1.05    0.95;
   232     1       0       0       0       0       158     0.479   40.8    13.8    0       1.9     0.4;
   233     1       0       0       0       0       157     0.594   44.4    500     0       1.1     1;
   234     1       0       0       0       0       158     1.013   43.3    345     0       1.05    0.95;
   235     1       0       0       0       0       147     0.532   42.9    500     0       1.1     1;
   236     1       0       0       0       0       160     1.013   39.3    138     0       1.05    0.95;
   237     1       0       0       0       0       160     0.965   42      138     0       1.05    0.95;
   238     1       0       0       0       0       153     1.027   46.8    138     0       1.05    0.95;
   239     1       0       0       0       0       154     1.021   42.4    138     0       1.05    0.95;
...
];
%% generator data
%	bus       Pg        Qg        Qmax      Qmin      Vg        mBase     status    Pmax      Pmin      Pc1       Pc2       Qc1min    Qc1max    Qc2min    Qc2max    ramp_agc  ramp_10   ramp_30   ramp_q    apf
mpc.gen = [
   11        1350.0    1555.0    600.0     -350.0    0.978     100       1         1350.0    0.0       0.00      0.00      0.00      0.00      0.00      0.00      0.00      0.00      0.00      0.00      0.00;
   12        695.4     -374.0    280.0     -360.0    0.964     100       1         875.0     0.0       0.00      0.00      0.00      0.00      0.00      0.00      0.00      0.00      0.00      0.00      0.00;
   14        123.3     251.5     50.0      -50.0     0.974     100       1         216.0     0.0       0.00      0.00      0.00      0.00      0.00      0.00      0.00      0.00      0.00      0.00      0.00;
   16        912.0     1095.0    250.0     -250.0    0.973     100       1         912.0     0.0       0.00      0.00      0.00      0.00      0.00      0.00      0.00      0.00      0.00      0.00      0.00;
   16        240.96    1095.0    250.0     -250.0    0.973     100       1         304.0     0.0       0.00      0.00      0.00      0.00      0.00      0.00      0.00      0.00      0.00      0.00      0.00;
   18        1698.22   25.4      400.0     -364.0    0.963     100       1         1735.0    0.0       0.00      0.00      0.00      0.00      0.00      0.00      0.00      0.00      0.00      0.00      0.00;
   20        1083.25   -1386.0   400.0     -400.0    1.013     100       1         1440.0    0.0       0.00      0.00      0.00      0.00      0.00      0.00      0.00      0.00      0.00      0.00      0.00;
   21        97.13     -5.2      21.0      -20.0     0.982     100       1         157.5     0.0       0.00      0.00      0.00      0.00      0.00      0.00      0.00      0.00      0.00      0.00      0.00;
   22        196.0     0.14      84.0      -80.0     0.985     100       1         196.0     0.0       0.00      0.00      0.00      0.00      0.00      0.00      0.00      0.00      0.00      0.00      0.00;
   22        5.96      0.14      84.0      -80.0     0.985     100       1         104.0     0.0       0.00      0.00      0.00      0.00      0.00      0.00      0.00      0.00      0.00      0.00      0.00;
   24        80.0      -6.65     46.5      -18.0     0.971     100       1         80.0      0.0       0.00      0.00      0.00      0.00      0.00      0.00      0.00      0.00      0.00      0.00      0.00;
   24        27.53     -6.65     46.5      -18.0     0.971     100       1         96.0      0.0       0.00      0.00      0.00      0.00      0.00      0.00      0.00      0.00      0.00      0.00      0.00;
   28        138.2     -313.0    100.0     -100.0    1.007     100       1         240.0     0.0       0.00      0.00      0.00      0.00      0.00      0.00      0.00      0.00      0.00      0.00      0.00;
   35        217.19    131.5     120.0     -120.0    0.964     100       1         375.0     0.0       0.00      0.00      0.00      0.00      0.00      0.00      0.00      0.00      0.00      0.00      0.00;
   36        1145.46   3651.0    320.0     -320.0    0.975     100       1         1275.0    0.0       0.00      0.00      0.00      0.00      0.00      0.00      0.00      0.00      0.00      0.00      0.00;
   54        0.0       0.0       0.0       0.0       0.972     100       1         1338.3    0.0       0.00      0.00      0.00      0.00      0.00      0.00      0.00      0.00      0.00      0.00      0.00;
   250       95.24     71.69     25.0      -10.7     0.971     100       1         95.24     0.0       0.00      0.00      0.00      0.00      0.00      0.00      0.00      0.00      0.00      0.00      0.00;
   253       58.21     160.8     50.0      -16.8     0.964     100       1         88.0      0.0       0.00      0.00      0.00      0.00      0.00      0.00      0.00      0.00      0.00      0.00      0.00;
   255       29.15     88.65     35.0      -10.0     0.976     100       1         99.9      0.0       0.00      0.00      0.00      0.00      0.00      0.00      0.00      0.00      0.00      0.00      0.00;
   257       27.41     77.85     59.8      -23.7     0.952     100       1         27.41     0.0       0.00      0.00      0.00      0.00      0.00      0.00      0.00      0.00      0.00      0.00      0.00;
   257       27.3      77.85     59.8      -23.7     0.952     100       1         27.3      0.0       0.00      0.00      0.00      0.00      0.00      0.00      0.00      0.00      0.00      0.00      0.00;
   257       32.01     77.85     59.8      -23.7     0.952     100       1         32.01     0.0       0.00      0.00      0.00      0.00      0.00      0.00      0.00      0.00      0.00      0.00      0.00;
   257       2.11      77.85     59.8      -23.7     0.952     100       1         49.05     0.0       0.00      0.00      0.00      0.00      0.00      0.00      0.00      0.00      0.00      0.00      0.00;
   257       0.0       0.0       59.8      -23.7     0.952     100       1         51.4      0.0       0.00      0.00      0.00      0.00      0.00      0.00      0.00      0.00      0.00      0.00      0.00;
   296       15.18     205.7     20.0      -20.0     0.999     100       1         56.04     0.0       0.00      0.00      0.00      0.00      0.00      0.00      0.00      0.00      0.00      0.00      0.00;
   300       1087.27   797.3     294.0     -330.0    0.953     100       1         1192.0    0.0       0.00      0.00      0.00      0.00      0.00      0.00      0.00      0.00      0.00      0.00      0.00;
   301       390.14    133.0     140.0     -140.0    0.967     100       1         424.0     0.0       0.00      0.00      0.00      0.00      0.00      0.00      0.00      0.00      0.00      0.00      0.00;
   302       465.59    260.7     100.0     -100.0    0.961     100       1         510.0     0.0       0.00      0.00      0.00      0.00      0.00      0.00      0.00      0.00      0.00      0.00      0.00;
   303       1276.04   -1271.0   500.0     -500.0    0.972     100       1         1425.0    0.0       0.00      0.00      0.00      0.00      0.00      0.00      0.00      0.00      0.00      0.00      0.00;
   304       118.26    268.6     30.0      -30.0     0.964     100       1         396.0     0.0       0.00      0.00      0.00      0.00      0.00      0.00      0.00      0.00      0.00      0.00      0.00;
   305       182.7     -196.0    90.0      -90.0     0.975     100       1         285.0     0.0       0.00      0.00      0.00      0.00      0.00      0.00      0.00      0.00      0.00      0.00      0.00;
   306       25.05     208.7     51.0      -51.0     0.997     100       1         140.0     0.0       0.00      0.00      0.00      0.00      0.00      0.00      0.00      0.00      0.00      0.00      0.00;
   312       355.84    -225.0    80.0      -80.0     0.952     100       1         408.0     0.0       0.00      0.00      0.00      0.00      0.00      0.00      0.00      0.00      0.00      0.00      0.00;
   317       22.63     131.9     24.0      -24.0     1.006     100       1         60.0      0.0       0.00      0.00      0.00      0.00      0.00      0.00      0.00      0.00      0.00      0.00      0.00;
   343       169.71    -121.0    56.0      -56.0     1.002     100       1         210.0     0.0       0.00      0.00      0.00      0.00      0.00      0.00      0.00      0.00      0.00      0.00      0.00;
   404       0.0       0.0       0.0       0.0       0.963     100       1         280.0     0.0       0.00      0.00      0.00      0.00      0.00      0.00      0.00      0.00      0.00      0.00      0.00;
   404       0.0       0.0       0.0       0.0       0.963     100       1         280.0     0.0       0.00      0.00      0.00      0.00      0.00      0.00      0.00      0.00      0.00      0.00      0.00;
   405       0.0       0.0       0.0       0.0       0.987     100       1         140.0     0.0       0.00      0.00      0.00      0.00      0.00      0.00      0.00      0.00      0.00      0.00      0.00;
   405       0.0       0.0       0.0       0.0       0.987     100       1         140.0     0.0       0.00      0.00      0.00      0.00      0.00      0.00      0.00      0.00      0.00      0.00      0.00;
   406       0.0       0.0       0.0       0.0       0.998     100       1         140.0     0.0       0.00      0.00      0.00      0.00      0.00      0.00      0.00      0.00      0.00      0.00      0.00;
   406       0.0       0.0       0.0       0.0       0.998     100       1         140.0     0.0       0.00      0.00      0.00      0.00      0.00      0.00      0.00      0.00      0.00      0.00      0.00;
   500       1267.88   -908.0    360.0     -360.0    1.0       100       1         1396.2    0.0       0.00      0.00      0.00      0.00      0.00      0.00      0.00      0.00      0.00      0.00      0.00;
   501       704.0     -564.33   600.0     -600.0    0.982     100       1         704.0     0.0       0.00      0.00      0.00      0.00      0.00      0.00      0.00      0.00      0.00      0.00      0.00;
   501       1700.0    -564.33   600.0     -600.0    0.982     100       1         1700.0    0.0       0.00      0.00      0.00      0.00      0.00      0.00      0.00      0.00      0.00      0.00      0.00;
   501       854.42    -564.33   600.0     -600.0    0.982     100       1         870.0     0.0       0.00      0.00      0.00      0.00      0.00      0.00      0.00      0.00      0.00      0.00      0.00;
   503       252.26    -471.0    96.0      -96.0     0.978     100       1         1329.6    0.0       0.00      0.00      0.00      0.00      0.00      0.00      0.00      0.00      0.00      0.00      0.00;
   505       93.2      27.04     72.0      -72.0     0.984     100       1         354.0     0.0       0.00      0.00      0.00      0.00      0.00      0.00      0.00      0.00      0.00      0.00      0.00;
   506       70.89     72.07     18.6      -18.8     0.975     100       1         100.96    0.0       0.00      0.00      0.00      0.00      0.00      0.00      0.00      0.00      0.00      0.00      0.00;
   507       113.49    -60.4     308.0     -308.0    0.981     100       1         163.0     0.0       0.00      0.00      0.00      0.00      0.00      0.00      0.00      0.00      0.00      0.00      0.00;
   507       0.0       0.0       308.0     -308.0    0.981     100       1         480.0     0.0       0.00      0.00      0.00      0.00      0.00      0.00      0.00      0.00      0.00      0.00      0.00;
   508       29.76     28.11     16.0      -12.0     0.984     100       1         55.0      0.0       0.00      0.00      0.00      0.00      0.00      0.00      0.00      0.00      0.00      0.00      0.00;
   509       34.61     37.46     30.0      -24.0     0.984     100       1         72.0      0.0       0.00      0.00      0.00      0.00      0.00      0.00      0.00      0.00      0.00      0.00      0.00;
   510       516.49    -145.0    270.0     -270.0    0.992     100       1         1540.0    0.0       0.00      0.00      0.00      0.00      0.00      0.00      0.00      0.00      0.00      0.00      0.00;
   512       47.63     173.1     27.0      -27.0     1.009     100       1         73.8      0.0       0.00      0.00      0.00      0.00      0.00      0.00      0.00      0.00      0.00      0.00      0.00;
   513       98.82     -88.1     192.0     -192.0    0.992     100       1         525.0     0.0       0.00      0.00      0.00      0.00      0.00      0.00      0.00      0.00      0.00      0.00      0.00;
   514       103.5     200.6     150.0     -150.0    0.962     100       1         103.5     0.0       0.00      0.00      0.00      0.00      0.00      0.00      0.00      0.00      0.00      0.00      0.00;
   514       215.76    200.6     150.0     -150.0    0.962     100       1         310.5     0.0       0.00      0.00      0.00      0.00      0.00      0.00      0.00      0.00      0.00      0.00      0.00;
   515       54.22     81.25     23.0      -23.0     0.996     100       1         143.1     0.0       0.00      0.00      0.00      0.00      0.00      0.00      0.00      0.00      0.00      0.00      0.00;
   516       56.28     279.6     42.0      -42.0     1.014     100       1         105.57    0.0       0.00      0.00      0.00      0.00      0.00      0.00      0.00      0.00      0.00      0.00      0.00;
   517       77.02     147.3     54.0      -54.0     1.008     100       1         131.49    0.0       0.00      0.00      0.00      0.00      0.00      0.00      0.00      0.00      0.00      0.00      0.00;
   518       286.4     254.0     144.0     -144.0    0.971     100       1         347.4     0.0       0.00      0.00      0.00      0.00      0.00      0.00      0.00      0.00      0.00      0.00      0.00;
   519       131.57    115.5     141.0     -141.0    0.967     100       1         176.0     0.0       0.00      0.00      0.00      0.00      0.00      0.00      0.00      0.00      0.00      0.00      0.00;
   520       772.67    -115.0    50.0      -50.0     1.001     100       1         807.5     0.0       0.00      0.00      0.00      0.00      0.00      0.00      0.00      0.00      0.00      0.00      0.00;
   521       39.68     147.1     25.0      -25.0     0.995     100       1         41.2      0.0       0.00      0.00      0.00      0.00      0.00      0.00      0.00      0.00      0.00      0.00      0.00;
   521       0.0       0.0       25.0      -25.0     0.995     100       1         39.2      0.0       0.00      0.00      0.00      0.00      0.00      0.00      0.00      0.00      0.00      0.00      0.00;
   522       34.03     244.1     34.0      -34.0     1.007     100       1         108.8     0.0       0.00      0.00      0.00      0.00      0.00      0.00      0.00      0.00      0.00      0.00      0.00;
   523       9.74      84.28     8.5       -8.5      0.997     100       1         32.0      0.0       0.00      0.00      0.00      0.00      0.00      0.00      0.00      0.00      0.00      0.00      0.00;
   525       9.66      53.76     9.0       -9.0      1.007     100       1         13.8      0.0       0.00      0.00      0.00      0.00      0.00      0.00      0.00      0.00      0.00      0.00      0.00;
   526       43.04     80.5      26.0      -26.0     0.993     100       1         43.04     0.0       0.00      0.00      0.00      0.00      0.00      0.00      0.00      0.00      0.00      0.00      0.00;
   526       7.33      80.5      26.0      -26.0     0.993     100       1         43.98     0.0       0.00      0.00      0.00      0.00      0.00      0.00      0.00      0.00      0.00      0.00      0.00;
   614       52.45     72.36     19.6      -25.2     0.992     100       1         80.0      0.0       0.00      0.00      0.00      0.00      0.00      0.00      0.00      0.00      0.00      0.00      0.00;
   750       21.83     -35.4     16.0      -16.0     0.968     100       1         34.0      0.0       0.00      0.00      0.00      0.00      0.00      0.00      0.00      0.00      0.00      0.00      0.00;
   751       140.8     -17.8     50.0      -50.0     0.973     100       1         162.0     0.0       0.00      0.00      0.00      0.00      0.00      0.00      0.00      0.00      0.00      0.00      0.00;
   753       252.0     8.61      70.0      -70.0     0.973     100       1         252.0     0.0       0.00      0.00      0.00      0.00      0.00      0.00      0.00      0.00      0.00      0.00      0.00;
   754       182.51    -75.5     80.0      -90.0     0.977     100       1         210.0     0.0       0.00      0.00      0.00      0.00      0.00      0.00      0.00      0.00      0.00      0.00      0.00;
   800       929.74    554.3     800.0     -800.0    1.021     100       1         1257.0    0.0       0.00      0.00      0.00      0.00      0.00      0.00      0.00      0.00      0.00      0.00      0.00;
   802       0.0       0.0       0.0       0.0       1.008     100       1         235.0     0.0       0.00      0.00      0.00      0.00      0.00      0.00      0.00      0.00      0.00      0.00      0.00;
   802       0.0       0.0       0.0       0.0       1.008     100       1         235.0     0.0       0.00      0.00      0.00      0.00      0.00      0.00      0.00      0.00      0.00      0.00      0.00;
   803       0.0       0.0       0.0       0.0       1.008     100       1         484.15    0.0       0.00      0.00      0.00      0.00      0.00      0.00      0.00      0.00      0.00      0.00      0.00;
   804       63.0      -29.7     136.0     -132.0    0.952     100       1         195.0     0.0       0.00      0.00      0.00      0.00      0.00      0.00      0.00      0.00      0.00      0.00      0.00;
   806       70.72     147.5     58.0      -58.0     0.965     100       1         120.16    0.0       0.00      0.00      0.00      0.00      0.00      0.00      0.00      0.00      0.00      0.00      0.00;
   808       71.34     2203.0    446.8     -600.0    0.993     100       1         930.0     0.0       0.00      0.00      0.00      0.00      0.00      0.00      0.00      0.00      0.00      0.00      0.00;
   810       860.01    56.29     370.0     -400.0    0.986     100       1         1260.0    0.0       0.00      0.00      0.00      0.00      0.00      0.00      0.00      0.00      0.00      0.00      0.00;
   904       982.34    -814.0    450.0     -450.0    0.971     100       1         1450.0    0.0       0.00      0.00      0.00      0.00      0.00      0.00      0.00      0.00      0.00      0.00      0.00;
   907       0.0       0.0       0.0       0.0       0.962     100       1         40.0      0.0       0.00      0.00      0.00      0.00      0.00      0.00      0.00      0.00      0.00      0.00      0.00;
   907       0.0       0.0       0.0       0.0       0.962     100       1         40.0      0.0       0.00      0.00      0.00      0.00      0.00      0.00      0.00      0.00      0.00      0.00      0.00;
   909       55.0      68.57     48.0      -42.0     0.972     100       1         55.0      0.0       0.00      0.00      0.00      0.00      0.00      0.00      0.00      0.00      0.00      0.00      0.00;
   911       110.0     66.44     68.5      -15.5     0.993     100       1         110.0     0.0       0.00      0.00      0.00      0.00      0.00      0.00      0.00      0.00      0.00      0.00      0.00;
   913       300.0     97.91     164.5     -61.0     0.97      100       1         330.0     0.0       0.00      0.00      0.00      0.00      0.00      0.00      0.00      0.00      0.00      0.00      0.00;
   915       958.57    -531.0    420.0     -440.0    0.966     100       1         1140.0    0.0       0.00      0.00      0.00      0.00      0.00      0.00      0.00      0.00      0.00      0.00      0.00;
   917       140.09    -34.9     115.0     -115.0    0.972     100       1         226.0     0.0       0.00      0.00      0.00      0.00      0.00      0.00      0.00      0.00      0.00      0.00      0.00;
   919       699.59    613.9     212.0     -160.0    0.995     100       1         728.0     0.0       0.00      0.00      0.00      0.00      0.00      0.00      0.00      0.00      0.00      0.00      0.00;
   921       0.0       0.0       124.0     -90.0     0.999     100       1         350.0     0.0       0.00      0.00      0.00      0.00      0.00      0.00      0.00      0.00      0.00      0.00      0.00;
   925       1279.4    -321.0    468.0     -468.0    0.957     100       1         1420.0    0.0       0.00      0.00      0.00      0.00      0.00      0.00      0.00      0.00      0.00      0.00      0.00;
   931       38.38     -55.8     28.0      -33.0     0.985     100       1         74.0      0.0       0.00      0.00      0.00      0.00      0.00      0.00      0.00      0.00      0.00      0.00      0.00;
   983       219.98    -310.0    135.0     -173.0    0.982     100       1         352.08    0.0       0.00      0.00      0.00      0.00      0.00      0.00      0.00      0.00      0.00      0.00      0.00;
   998       300.0     77.21     160.0     -115.0    0.996     100       1         345.0     0.0       0.00      0.00      0.00      0.00      0.00      0.00      0.00      0.00      0.00      0.00      0.00;
   1070      595.86    -559.0    281.2     -281.0    0.977     100       1         855.0     0.0       0.00      0.00      0.00      0.00      0.00      0.00      0.00      0.00      0.00      0.00      0.00;
   1107      5481.02   5881.0    2142.0    -1876.0   1.021     100       1         7000.0    0.0       0.00      0.00      0.00      0.00      0.00      0.00      0.00      0.00      0.00      0.00      0.00;
   1150      562.49    -30.7     228.0     -228.0    0.99      100       1         690.0     0.0       0.00      0.00      0.00      0.00      0.00      0.00      0.00      0.00      0.00      0.00      0.00;
   1152      0.0       0.0       0.0       0.0       1.006     100       1         248.57    0.0       0.00      0.00      0.00      0.00      0.00      0.00      0.00      0.00      0.00      0.00      0.00;
   1155      240.49    40.84     244.0     -240.0    0.963     100       1         500.4     0.0       0.00      0.00      0.00      0.00      0.00      0.00      0.00      0.00      0.00      0.00      0.00;
   1157      683.08    -110.0    291.0     -231.0    1.007     100       1         879.99    0.0       0.00      0.00      0.00      0.00      0.00      0.00      0.00      0.00      0.00      0.00      0.00;
   1159      70.93     251.2     60.0      -60.0     0.979     100       1         130.0     0.0       0.00      0.00      0.00      0.00      0.00      0.00      0.00      0.00      0.00      0.00      0.00;
   1162      84.66     130.5     78.0      -48.0     0.979     100       1         180.0     0.0       0.00      0.00      0.00      0.00      0.00      0.00      0.00      0.00      0.00      0.00      0.00;
   1166      72.1      653.4     63.0      -45.0     0.986     100       1         129.99    0.0       0.00      0.00      0.00      0.00      0.00      0.00      0.00      0.00      0.00      0.00      0.00;
   1168      56.2      411.0     48.0      -48.0     0.983     100       1         100.0     0.0       0.00      0.00      0.00      0.00      0.00      0.00      0.00      0.00      0.00      0.00      0.00;
   1173      300.0     -24.8     160.0     -115.0    0.95      100       1         350.0     0.0       0.00      0.00      0.00      0.00      0.00      0.00      0.00      0.00      0.00      0.00      0.00;
   1175      82.0      47.56     90.0      -62.0     0.992     100       1         82.0      0.0       0.00      0.00      0.00      0.00      0.00      0.00      0.00      0.00      0.00      0.00      0.00;
   1175      27.27     47.56     90.0      -62.0     0.992     100       1         76.0      0.0       0.00      0.00      0.00      0.00      0.00      0.00      0.00      0.00      0.00      0.00      0.00;
   1176      54.28     4.91      52.0      -66.0     0.982     100       1         125.0     0.0       0.00      0.00      0.00      0.00      0.00      0.00      0.00      0.00      0.00      0.00      0.00;
   1496      15.8      76.61     51.2      -62.4     1.005     100       1         140.0     0.0       0.00      0.00      0.00      0.00      0.00      0.00      0.00      0.00      0.00      0.00      0.00;
   1501      25.0      13.74     6.0       -5.0      0.97      100       1         25.0      0.0       0.00      0.00      0.00      0.00      0.00      0.00      0.00      0.00      0.00      0.00      0.00;
   1501      11.69     13.74     6.0       -5.0      0.97      100       1         14.0      0.0       0.00      0.00      0.00      0.00      0.00      0.00      0.00      0.00      0.00      0.00      0.00;
   1501      0.0       0.0       6.0       -5.0      0.97      100       1         13.0      0.0       0.00      0.00      0.00      0.00      0.00      0.00      0.00      0.00      0.00      0.00      0.00;
   1502      38.3      146.5     30.0      -45.0     1.003     100       1         54.0      0.0       0.00      0.00      0.00      0.00      0.00      0.00      0.00      0.00      0.00      0.00      0.00;
   1502      0.0       0.0       30.0      -45.0     1.003     100       1         48.0      0.0       0.00      0.00      0.00      0.00      0.00      0.00      0.00      0.00      0.00      0.00      0.00;
   1511      1.87      20.8      13.2      -13.2     0.978     100       1         60.0      0.0       0.00      0.00      0.00      0.00      0.00      0.00      0.00      0.00      0.00      0.00      0.00;
   1559      22.9      49.88     0.0       0.0       0.962     100       1         93.34     0.0       0.00      0.00      0.00      0.00      0.00      0.00      0.00      0.00      0.00      0.00      0.00;
   1585      0.0       0.0       0.0       0.0       0.952     100       1         235.0     0.0       0.00      0.00      0.00      0.00      0.00      0.00      0.00      0.00      0.00      0.00      0.00;
   1594      28.99     88.08     18.6      -20.0     0.992     100       1         112.0     0.0       0.00      0.00      0.00      0.00      0.00      0.00      0.00      0.00      0.00      0.00      0.00;
   1599      23.66     532.3     39.0      -25.0     1.013     100       1         30.0      0.0       0.00      0.00      0.00      0.00      0.00      0.00      0.00      0.00      0.00      0.00      0.00;
   1599      0.0       0.0       39.0      -25.0     1.013     100       1         18.0      0.0       0.00      0.00      0.00      0.00      0.00      0.00      0.00      0.00      0.00      0.00      0.00;
   1599      0.0       0.0       39.0      -25.0     1.013     100       1         30.0      0.0       0.00      0.00      0.00      0.00      0.00      0.00      0.00      0.00      0.00      0.00      0.00;
   1866      23.14     -92.0     0.0       0.0       1.027     100       1         48.0      0.0       0.00      0.00      0.00      0.00      0.00      0.00      0.00      0.00      0.00      0.00      0.00;
   2031      29.08     58.93     21.6      -23.4     1.048     100       1         44.01     0.0       0.00      0.00      0.00      0.00      0.00      0.00      0.00      0.00      0.00      0.00      0.00;
   2475      68.12     213.5     58.0      -58.0     0.962     100       1         120.16    0.0       0.00      0.00      0.00      0.00      0.00      0.00      0.00      0.00      0.00      0.00      0.00;
   2600      11.63     304.1     95.88     -95.9     0.982     100       1         198.0     0.0       0.00      0.00      0.00      0.00      0.00      0.00      0.00      0.00      0.00      0.00      0.00;
   2696      22.0      86.96     20.0      -20.0     0.969     100       1         55.0      0.0       0.00      0.00      0.00      0.00      0.00      0.00      0.00      0.00      0.00      0.00      0.00;
   2836      68.79     -138.0    57.0      -54.0     0.982     100       1         120.0     0.0       0.00      0.00      0.00      0.00      0.00      0.00      0.00      0.00      0.00      0.00      0.00;
   2863      99.96     62.09     88.3      -88.3     0.987     100       1         191.88    0.0       0.00      0.00      0.00      0.00      0.00      0.00      0.00      0.00      0.00      0.00      0.00;
   2979      0.0       0.0       0.0       0.0       0.963     100       1         26.06     0.0       0.00      0.00      0.00      0.00      0.00      0.00      0.00      0.00      0.00      0.00      0.00;
   2979      0.0       0.0       0.0       0.0       0.963     100       1         27.51     0.0       0.00      0.00      0.00      0.00      0.00      0.00      0.00      0.00      0.00      0.00      0.00;
   3014      128.46    78.49     51.48     -51.5     1.017     100       1         212.58    0.0       0.00      0.00      0.00      0.00      0.00      0.00      0.00      0.00      0.00      0.00      0.00;
   3017      0.0       0.0       0.0       0.0       0.994     100       1         68.06     0.0       0.00      0.00      0.00      0.00      0.00      0.00      0.00      0.00      0.00      0.00      0.00;
   3017      0.0       0.0       0.0       0.0       0.994     100       1         68.06     0.0       0.00      0.00      0.00      0.00      0.00      0.00      0.00      0.00      0.00      0.00      0.00;
   3524      0.0       0.0       0.0       0.0       0.999     100       1         90.0      0.0       0.00      0.00      0.00      0.00      0.00      0.00      0.00      0.00      0.00      0.00      0.00;
   3641      90.78     217.0     48.0      -48.0     0.96      100       1         129.2     0.0       0.00      0.00      0.00      0.00      0.00      0.00      0.00      0.00      0.00      0.00      0.00;
   3642      47.8      37.53     36.0      -36.0     0.958     100       1         47.8      0.0       0.00      0.00      0.00      0.00      0.00      0.00      0.00      0.00      0.00      0.00      0.00;
   3642      3.19      37.53     36.0      -36.0     0.958     100       1         48.64     0.0       0.00      0.00      0.00      0.00      0.00      0.00      0.00      0.00      0.00      0.00      0.00;
   3740      0.0       0.0       0.0       0.0       0.994     100       1         70.58     0.0       0.00      0.00      0.00      0.00      0.00      0.00      0.00      0.00      0.00      0.00      0.00;
   3740      0.0       0.0       0.0       0.0       0.994     100       1         69.86     0.0       0.00      0.00      0.00      0.00      0.00      0.00      0.00      0.00      0.00      0.00      0.00;
   3744      10.07     -4.97     10.32     -10.3     0.99      100       1         21.34     0.0       0.00      0.00      0.00      0.00      0.00      0.00      0.00      0.00      0.00      0.00      0.00;
   3962      0.0       0.0       240.0     -140.0    1.007     100       1         250.0     0.0       0.00      0.00      0.00      0.00      0.00      0.00      0.00      0.00      0.00      0.00      0.00;
   3962      0.0       0.0       240.0     -140.0    1.007     100       1         250.0     0.0       0.00      0.00      0.00      0.00      0.00      0.00      0.00      0.00      0.00      0.00      0.00;
   3962      0.0       0.0       240.0     -140.0    1.007     100       1         250.0     0.0       0.00      0.00      0.00      0.00      0.00      0.00      0.00      0.00      0.00      0.00      0.00;
   3963      0.0       0.0       180.0     -110.0    0.997     100       1         520.0     0.0       0.00      0.00      0.00      0.00      0.00      0.00      0.00      0.00      0.00      0.00      0.00;
   3964      332.31    179.4     156.0     -142.0    0.991     100       1         450.0     0.0       0.00      0.00      0.00      0.00      0.00      0.00      0.00      0.00      0.00      0.00      0.00;
   3968      130.03    34.94     117.6     -118.0    0.996     100       1         243.2     0.0       0.00      0.00      0.00      0.00      0.00      0.00      0.00      0.00      0.00      0.00      0.00;
   3974      0.0       0.0       0.0       0.0       0.994     100       1         180.0     0.0       0.00      0.00      0.00      0.00      0.00      0.00      0.00      0.00      0.00      0.00      0.00;
   3974      0.0       0.0       0.0       0.0       0.994     100       1         225.0     0.0       0.00      0.00      0.00      0.00      0.00      0.00      0.00      0.00      0.00      0.00      0.00;
   3974      0.0       0.0       0.0       0.0       0.994     100       1         270.0     0.0       0.00      0.00      0.00      0.00      0.00      0.00      0.00      0.00      0.00      0.00      0.00;
   3974      0.0       0.0       0.0       0.0       0.994     100       1         315.0     0.0       0.00      0.00      0.00      0.00      0.00      0.00      0.00      0.00      0.00      0.00      0.00;
   3974      0.0       0.0       0.0       0.0       0.994     100       1         45.0      0.0       0.00      0.00      0.00      0.00      0.00      0.00      0.00      0.00      0.00      0.00      0.00;
   3974      0.0       0.0       0.0       0.0       0.994     100       1         90.0      0.0       0.00      0.00      0.00      0.00      0.00      0.00      0.00      0.00      0.00      0.00      0.00;
   3974      0.0       0.0       0.0       0.0       0.994     100       1         135.0     0.0       0.00      0.00      0.00      0.00      0.00      0.00      0.00      0.00      0.00      0.00      0.00;
   3977      0.0       0.0       0.0       0.0       1.023     100       1         270.0     0.0       0.00      0.00      0.00      0.00      0.00      0.00      0.00      0.00      0.00      0.00      0.00;
   3977      0.0       0.0       0.0       0.0       1.023     100       1         315.0     0.0       0.00      0.00      0.00      0.00      0.00      0.00      0.00      0.00      0.00      0.00      0.00;
   3977      0.0       0.0       0.0       0.0       1.023     100       1         360.0     0.0       0.00      0.00      0.00      0.00      0.00      0.00      0.00      0.00      0.00      0.00      0.00;
   3977      0.0       0.0       0.0       0.0       1.023     100       1         405.0     0.0       0.00      0.00      0.00      0.00      0.00      0.00      0.00      0.00      0.00      0.00      0.00;
   3977      0.0       0.0       0.0       0.0       1.023     100       1         450.0     0.0       0.00      0.00      0.00      0.00      0.00      0.00      0.00      0.00      0.00      0.00      0.00;
   3977      0.0       0.0       0.0       0.0       1.023     100       1         495.0     0.0       0.00      0.00      0.00      0.00      0.00      0.00      0.00      0.00      0.00      0.00      0.00;
   3977      0.0       0.0       0.0       0.0       1.023     100       1         540.0     0.0       0.00      0.00      0.00      0.00      0.00      0.00      0.00      0.00      0.00      0.00      0.00;
   3977      0.0       0.0       0.0       0.0       1.023     100       1         45.0      0.0       0.00      0.00      0.00      0.00      0.00      0.00      0.00      0.00      0.00      0.00      0.00;
   3977      0.0       0.0       0.0       0.0       1.023     100       1         90.0      0.0       0.00      0.00      0.00      0.00      0.00      0.00      0.00      0.00      0.00      0.00      0.00;
   3977      0.0       0.0       0.0       0.0       1.023     100       1         135.0     0.0       0.00      0.00      0.00      0.00      0.00      0.00      0.00      0.00      0.00      0.00      0.00;
   3977      0.0       0.0       0.0       0.0       1.023     100       1         180.0     0.0       0.00      0.00      0.00      0.00      0.00      0.00      0.00      0.00      0.00      0.00      0.00;
   3977      0.0       0.0       0.0       0.0       1.023     100       1         225.0     0.0       0.00      0.00      0.00      0.00      0.00      0.00      0.00      0.00      0.00      0.00      0.00;
   3978      0.0       0.0       0.0       0.0       1.023     100       1         585.0     0.0       0.00      0.00      0.00      0.00      0.00      0.00      0.00      0.00      0.00      0.00      0.00;
   3978      0.0       0.0       0.0       0.0       1.023     100       1         630.0     0.0       0.00      0.00      0.00      0.00      0.00      0.00      0.00      0.00      0.00      0.00      0.00;
   3978      0.0       0.0       0.0       0.0       1.023     100       1         675.0     0.0       0.00      0.00      0.00      0.00      0.00      0.00      0.00      0.00      0.00      0.00      0.00;
   3978      0.0       0.0       0.0       0.0       1.023     100       1         810.0     0.0       0.00      0.00      0.00      0.00      0.00      0.00      0.00      0.00      0.00      0.00      0.00;
   3978      0.0       0.0       0.0       0.0       1.023     100       1         855.0     0.0       0.00      0.00      0.00      0.00      0.00      0.00      0.00      0.00      0.00      0.00      0.00;
   3978      0.0       0.0       0.0       0.0       1.023     100       1         928.7     0.0       0.00      0.00      0.00      0.00      0.00      0.00      0.00      0.00      0.00      0.00      0.00;
   3978      0.0       0.0       0.0       0.0       1.023     100       1         720.0     0.0       0.00      0.00      0.00      0.00      0.00      0.00      0.00      0.00      0.00      0.00      0.00;
   3978      0.0       0.0       0.0       0.0       1.023     100       1         765.0     0.0       0.00      0.00      0.00      0.00      0.00      0.00      0.00      0.00      0.00      0.00      0.00;
   4016      19.57     -9.34     12.0      -12.0     1.005     100       1         50.0      0.0       0.00      0.00      0.00      0.00      0.00      0.00      0.00      0.00      0.00      0.00      0.00;
   4039      6.76      11.69     17.4      -15.5     0.968     100       1         35.0      0.0       0.00      0.00      0.00      0.00      0.00      0.00      0.00      0.00      0.00      0.00      0.00;
   4042      24.29     -28.0     36.2      -70.0     0.976     100       1         330.0     0.0       0.00      0.00      0.00      0.00      0.00      0.00      0.00      0.00      0.00      0.00      0.00;
   4044      60.59     95.56     19.7      -47.4     0.995     100       1         120.0     0.0       0.00      0.00      0.00      0.00      0.00      0.00      0.00      0.00      0.00      0.00      0.00;
   4052      173.96    3.94      52.0      -52.0     0.967     100       1         240.0     0.0       0.00      0.00      0.00      0.00      0.00      0.00      0.00      0.00      0.00      0.00      0.00;
   4054      73.21     -12.9     66.0      -66.0     0.953     100       1         140.0     0.0       0.00      0.00      0.00      0.00      0.00      0.00      0.00      0.00      0.00      0.00      0.00;
   4064      18.45     -12.7     95.4      -126.0    0.982     100       1         399.0     0.0       0.00      0.00      0.00      0.00      0.00      0.00      0.00      0.00      0.00      0.00      0.00;
...